#	Created by:	Discovery Studio
#	Creation time:	Mon Nov 26 13:02:08 W. Europe Standard Time 2007

@<TRIPOS>MOLECULE
****
    5     0     1 0 0
SMALL
USER_CHARGES


@<TRIPOS>ATOM
      1 C1           -8.5665   -0.9556    3.7512 C.3      1 SUBUNIT   -0.0000
      2 O2           -6.4576    0.4123    3.6616 O.3      1 SUBUNIT    0.0000
      3 N3           -4.3487    1.7801    3.5721 N.3      1 SUBUNIT    0.0000
      4 S4           -2.2399    3.1480    3.4825 S.3      1 SUBUNIT    0.0000
      5 H5           -0.1310    4.5159    3.3930 H        1 SUBUNIT    0.0000
@<TRIPOS>BOND
@<TRIPOS>SUBSTRUCTURE
1 SUBUNIT 1 PERM 0 **** ****
@<SCITEGIC>ATOM_PROPERTY
Formal Charge
SciTegic.value.StringValue
1 0
2 0
3 0
4 0
5 0

